[Format]      =  4.0
[Frequency]   =  0
[Precision]   =  1e-008
[MinAngle]    =  1
[DoSmartMesh] =  0
[Depth]       =  40
[LengthUnits] =  millimeters
[ProblemType] =  planar
[Coordinates] =  cartesian
[ACSolver]    =  0
[PrevType]    =  0
[PrevSoln]    =  ""
[Comment]     =  "Add comments here."
[PointProps]   = 0
[BdryProps]   = 2
  <BeginBdry>
    <BdryName> = "neumann"
    <BdryType> = 3
    <A_0> = 0
    <A_1> = 0
    <A_2> = 0
    <Phi> = 0
    <c0> = 0
    <c0i> = 0
    <c1> = 0
    <c1i> = 0
    <Mu_ssd> = 0
    <Sigma_ssd> = 0
    <innerangle> = 0
    <outerangle> = 0
  <EndBdry>
  <BeginBdry>
    <BdryName> = "dirichlet"
    <BdryType> = 0
    <A_0> = 0
    <A_1> = 0
    <A_2> = 0
    <Phi> = 0
    <c0> = 0
    <c0i> = 0
    <c1> = 0
    <c1i> = 0
    <Mu_ssd> = 0
    <Sigma_ssd> = 0
    <innerangle> = 0
    <outerangle> = 0
  <EndBdry>
[BlockProps]  = 3
  <BeginBlock>
    <BlockName> = "Air"
    <Mu_x> = 1
    <Mu_y> = 1
    <H_c> = 0
    <H_cAngle> = 0
    <J_re> = 0
    <J_im> = 0
    <Sigma> = 0
    <d_lam> = 0
    <Phi_h> = 0
    <Phi_hx> = 0
    <Phi_hy> = 0
    <LamType> = 0
    <LamFill> = 1
    <NStrands> = 0
    <WireD> = 0
    <BHPoints> = 0
  <EndBlock>
  <BeginBlock>
    <BlockName> = "Cold rolled low carbon strip steel"
    <Mu_x> = 1
    <Mu_y> = 1
    <H_c> = 0
    <H_cAngle> = 0
    <J_re> = 0
    <J_im> = 0
    <Sigma> = 8.4100000000000001
    <d_lam> = 0
    <Phi_h> = 0
    <Phi_hx> = 0
    <Phi_hy> = 0
    <LamType> = 0
    <LamFill> = 1
    <NStrands> = 0
    <WireD> = 0
    <BHPoints> = 30
      0	0
      0.25879392381720928	164.92999999999998
      0.30180486493722419	173.63666666666668
      0.33666735915473539	180.92666666666665
      0.42495199342992973	200.53
      0.7473178074029625	287.38666666666666
      1.011384581253957	412.14333333333326
      1.201776747252508	591.58999999999992
      1.2680347934366085	690.83333333333326
      1.3825549144095455	972.10333333333324
      1.4844346021927772	1566.0333333333333
      1.5543215879553376	2298.3999999999996
      1.6275853376778917	3516.2666666666664
      1.7326643792703789	6284.8000000000002
      1.7421846824795273	6619.2666666666673
      1.774621610366959	7895.3666666666659
      1.7804018079804538	8144.8666666666659
      1.9084190129899348	16487.666666666664
      1.9600489652236601	21816.666666666664
      2.0671950574242537	42384.333333333328
      2.093638690713278	51093
      2.1195996276460018	61592.666666666664
      2.151693826634427	76601.666666666657
      2.1766199432507078	89514
      2.1913634881460617	97267.666666666657
      2.2061088381613558	106800
      2.2294237629023126	120976.66666666666
      2.24540169688657	131463.33333333331
      2.4243620951622349	269260
      2.4898323550981316	321280
  <EndBlock>
  <BeginBlock>
    <BlockName> = "Copper"
    <Mu_x> = 1
    <Mu_y> = 1
    <H_c> = 0
    <H_cAngle> = 0
    <J_re> = 0
    <J_im> = 0
    <Sigma> = 58
    <d_lam> = 0
    <Phi_h> = 0
    <Phi_hx> = 0
    <Phi_hy> = 0
    <LamType> = 0
    <LamFill> = 1
    <NStrands> = 0
    <WireD> = 0
    <BHPoints> = 0
  <EndBlock>
[CircuitProps]  = 1
  <BeginCircuit>
    <CircuitName> = "icoil"
    <TotalAmps_re> = 1
    <TotalAmps_im> = 0
    <CircuitType> = 1
  <EndCircuit>
[NumPoints] = 551
0	0	0	0
1	0	0	0
1	1	0	0
0	1	0	0
1	2	0	0
0	2	0	0
0	3	0	0
0	4	0	0
1	5	0	0
0	5	0	0
1	6	0	0
0	6	0	0
1	7	0	0
0	7	0	0
1	8	0	0
0	8	0	0
1	9	0	0
0	9	0	0
1	10	0	0
0	10	0	0
1	11	0	0
0	11	0	0
0	12	0	0
0	13	0	0
1	14	0	0
0	14	0	0
1	15	0	0
0	15	0	0
1	16	0	0
0	16	0	0
1	17	0	0
0	17	0	0
1	18	0	0
0	18	0	0
1	19	0	0
0	19	0	0
1	20	0	0
0	20	0	0
1	21	0	0
0	21	0	0
1	22	0	0
0	22	0	0
1	23	0	0
0	23	0	0
1	24	0	0
0	24	0	0
1	25	0	0
0	25	0	0
1	26	0	0
0	26	0	0
1	27	0	0
0	27	0	0
0	28	0	0
0	29	0	0
0	30	0	0
0	31	0	0
0	32	0	0
1	33	0	0
0	33	0	0
1	34	0	0
0	34	0	0
1	35	0	0
0	35	0	0
2	0	0	0
2	1	0	0
2	2	0	0
2	5	0	0
2	6	0	0
2	7	0	0
2	8	0	0
2	9	0	0
2	10	0	0
2	11	0	0
2	14	0	0
2	15	0	0
2	16	0	0
2	17	0	0
2	18	0	0
2	19	0	0
2	20	0	0
2	21	0	0
2	22	0	0
2	23	0	0
2	24	0	0
2	25	0	0
2	26	0	0
2	27	0	0
2	33	0	0
2	34	0	0
2	35	0	0
3	0	0	0
3	1	0	0
3	2	0	0
3	5	0	0
3	6	0	0
3	7	0	0
3	8	0	0
3	9	0	0
3	10	0	0
3	11	0	0
3	14	0	0
3	15	0	0
3	16	0	0
3	17	0	0
3	18	0	0
3	19	0	0
3	20	0	0
3	21	0	0
3	22	0	0
3	23	0	0
3	24	0	0
3	25	0	0
3	26	0	0
3	27	0	0
3	33	0	0
3	34	0	0
3	35	0	0
4	0	0	0
4	1	0	0
4	2	0	0
4	5	0	0
4	6	0	0
4	7	0	0
4	8	0	0
4	9	0	0
4	10	0	0
4	11	0	0
4	14	0	0
4	15	0	0
4	16	0	0
4	17	0	0
4	18	0	0
4	19	0	0
4	20	0	0
4	21	0	0
4	22	0	0
4	23	0	0
4	24	0	0
4	25	0	0
4	26	0	0
4	27	0	0
4	33	0	0
4	34	0	0
4	35	0	0
5	0	0	0
5	1	0	0
5	2	0	0
5	5	0	0
5	6	0	0
5	7	0	0
5	8	0	0
5	9	0	0
5	10	0	0
5	11	0	0
5	14	0	0
5	15	0	0
5	16	0	0
5	17	0	0
5	18	0	0
5	19	0	0
5	20	0	0
5	21	0	0
5	22	0	0
5	23	0	0
5	24	0	0
5	25	0	0
5	26	0	0
5	27	0	0
5	33	0	0
5	34	0	0
5	35	0	0
6	0	0	0
6	1	0	0
6	2	0	0
6	5	0	0
6	6	0	0
6	7	0	0
6	8	0	0
6	9	0	0
6	10	0	0
6	11	0	0
6	14	0	0
6	15	0	0
6	16	0	0
6	17	0	0
6	18	0	0
6	19	0	0
6	20	0	0
6	21	0	0
6	22	0	0
6	23	0	0
6	24	0	0
6	25	0	0
6	26	0	0
6	27	0	0
6	33	0	0
6	34	0	0
6	35	0	0
7	0	0	0
7	1	0	0
7	2	0	0
7	5	0	0
7	6	0	0
7	7	0	0
7	8	0	0
7	9	0	0
7	10	0	0
7	11	0	0
7	14	0	0
7	15	0	0
7	16	0	0
7	17	0	0
7	18	0	0
7	19	0	0
7	20	0	0
7	21	0	0
7	22	0	0
7	23	0	0
7	24	0	0
7	25	0	0
7	26	0	0
7	27	0	0
7	33	0	0
7	34	0	0
7	35	0	0
8	0	0	0
8	1	0	0
8	2	0	0
8	5	0	0
8	6	0	0
8	7	0	0
8	8	0	0
8	9	0	0
8	10	0	0
8	11	0	0
8	14	0	0
8	15	0	0
8	16	0	0
8	17	0	0
8	18	0	0
8	19	0	0
8	20	0	0
8	21	0	0
8	22	0	0
8	23	0	0
8	24	0	0
8	25	0	0
8	26	0	0
8	27	0	0
8	33	0	0
8	34	0	0
8	35	0	0
9	0	0	0
9	1	0	0
9	2	0	0
9	3	0	0
9	4	0	0
9	5	0	0
9	6	0	0
9	7	0	0
9	8	0	0
9	9	0	0
9	10	0	0
9	11	0	0
9	12	0	0
9	13	0	0
9	14	0	0
9	15	0	0
9	16	0	0
9	17	0	0
9	18	0	0
9	19	0	0
9	20	0	0
9	21	0	0
9	22	0	0
9	23	0	0
9	24	0	0
9	25	0	0
9	26	0	0
9	27	0	0
9	33	0	0
9	34	0	0
9	35	0	0
10	0	0	0
10	1	0	0
10	2	0	0
10	3	0	0
10	4	0	0
10	5	0	0
10	6	0	0
10	7	0	0
10	8	0	0
10	9	0	0
10	10	0	0
10	11	0	0
10	12	0	0
10	13	0	0
10	14	0	0
10	15	0	0
10	16	0	0
10	17	0	0
10	18	0	0
10	19	0	0
10	20	0	0
10	21	0	0
10	22	0	0
10	23	0	0
10	24	0	0
10	25	0	0
10	26	0	0
10	27	0	0
10	33	0	0
10	34	0	0
10	35	0	0
11	0	0	0
11	1	0	0
11	2	0	0
11	3	0	0
11	4	0	0
11	5	0	0
11	6	0	0
11	7	0	0
11	8	0	0
11	9	0	0
11	10	0	0
11	11	0	0
11	12	0	0
11	13	0	0
11	14	0	0
11	15	0	0
11	16	0	0
11	17	0	0
11	18	0	0
11	19	0	0
11	20	0	0
11	21	0	0
11	22	0	0
11	23	0	0
11	24	0	0
11	25	0	0
11	26	0	0
11	27	0	0
11	33	0	0
11	34	0	0
11	35	0	0
12	0	0	0
12	1	0	0
12	2	0	0
12	3	0	0
12	4	0	0
12	5	0	0
12	6	0	0
12	7	0	0
12	8	0	0
12	9	0	0
12	10	0	0
12	11	0	0
12	12	0	0
12	13	0	0
12	14	0	0
12	15	0	0
12	16	0	0
12	17	0	0
12	18	0	0
12	19	0	0
12	20	0	0
12	21	0	0
12	22	0	0
12	23	0	0
12	24	0	0
12	25	0	0
12	26	0	0
12	27	0	0
12	33	0	0
12	34	0	0
12	35	0	0
13	0	0	0
13	1	0	0
13	2	0	0
13	3	0	0
13	4	0	0
13	5	0	0
13	6	0	0
13	7	0	0
13	8	0	0
13	9	0	0
13	10	0	0
13	11	0	0
13	12	0	0
13	13	0	0
13	14	0	0
13	15	0	0
13	16	0	0
13	17	0	0
13	18	0	0
13	19	0	0
13	20	0	0
13	21	0	0
13	22	0	0
13	23	0	0
13	24	0	0
13	25	0	0
13	26	0	0
13	27	0	0
13	33	0	0
13	34	0	0
13	35	0	0
14	0	0	0
14	1	0	0
14	2	0	0
14	3	0	0
14	4	0	0
14	5	0	0
14	6	0	0
14	7	0	0
14	8	0	0
14	9	0	0
14	10	0	0
14	11	0	0
14	12	0	0
14	13	0	0
14	14	0	0
14	15	0	0
14	16	0	0
14	17	0	0
14	18	0	0
14	19	0	0
14	20	0	0
14	21	0	0
14	22	0	0
14	23	0	0
14	24	0	0
14	25	0	0
14	26	0	0
14	27	0	0
14	33	0	0
14	34	0	0
14	35	0	0
15	0	0	0
15	1	0	0
15	2	0	0
15	3	0	0
15	4	0	0
15	5	0	0
15	6	0	0
15	7	0	0
15	8	0	0
15	9	0	0
15	10	0	0
15	11	0	0
15	12	0	0
15	13	0	0
15	14	0	0
15	15	0	0
15	16	0	0
15	17	0	0
15	18	0	0
15	19	0	0
15	20	0	0
15	21	0	0
15	22	0	0
15	23	0	0
15	24	0	0
15	25	0	0
15	26	0	0
15	27	0	0
15	28	0	0
15	29	0	0
15	30	0	0
15	31	0	0
15	32	0	0
15	33	0	0
15	34	0	0
15	35	0	0
16	0	0	0
16	1	0	0
16	2	0	0
16	3	0	0
16	4	0	0
16	5	0	0
16	6	0	0
16	7	0	0
16	8	0	0
16	9	0	0
16	10	0	0
16	11	0	0
16	12	0	0
16	13	0	0
16	14	0	0
16	15	0	0
16	16	0	0
16	17	0	0
16	18	0	0
16	19	0	0
16	20	0	0
16	21	0	0
16	22	0	0
16	23	0	0
16	24	0	0
16	25	0	0
16	26	0	0
16	27	0	0
16	28	0	0
16	29	0	0
16	30	0	0
16	31	0	0
16	32	0	0
16	33	0	0
16	34	0	0
16	35	0	0
17	0	0	0
17	1	0	0
17	2	0	0
17	3	0	0
17	4	0	0
17	5	0	0
17	6	0	0
17	7	0	0
17	8	0	0
17	9	0	0
17	10	0	0
17	11	0	0
17	12	0	0
17	13	0	0
17	14	0	0
17	15	0	0
17	16	0	0
17	17	0	0
17	18	0	0
17	19	0	0
17	20	0	0
17	21	0	0
17	22	0	0
17	23	0	0
17	24	0	0
17	25	0	0
17	26	0	0
17	27	0	0
17	28	0	0
17	29	0	0
17	30	0	0
17	31	0	0
17	32	0	0
17	33	0	0
17	34	0	0
17	35	0	0
32.299999999999997	10.6	0	0
0	100	0	0
100	100	0	0
100	-100	0	0
0	-100	0	0
[NumSegments] = 1004
0	1	-1	0	0	0
1	2	-1	0	0	0
2	3	-1	0	0	0
3	0	-1	1	0	5
2	4	-1	0	0	0
4	5	-1	0	0	0
5	3	-1	1	0	5
6	5	-1	1	0	5
7	6	-1	1	0	5
8	9	-1	0	0	0
9	7	-1	1	0	5
8	10	-1	0	0	0
10	11	-1	0	0	0
11	9	-1	1	0	5
10	12	-1	0	0	0
12	13	-1	0	0	0
13	11	-1	1	0	5
12	14	-1	0	0	0
14	15	-1	0	0	0
15	13	-1	1	0	5
14	16	-1	0	0	0
16	17	-1	0	0	0
17	15	-1	1	0	5
16	18	-1	0	0	0
18	19	-1	0	0	0
19	17	-1	1	0	5
18	20	-1	0	0	0
20	21	-1	0	0	0
21	19	-1	1	0	5
22	21	-1	1	0	5
23	22	-1	1	0	5
24	25	-1	0	0	0
25	23	-1	1	0	5
24	26	-1	0	0	0
26	27	-1	0	0	0
27	25	-1	1	0	5
26	28	-1	0	0	0
28	29	-1	0	0	0
29	27	-1	1	0	5
28	30	-1	0	0	0
30	31	-1	0	0	0
31	29	-1	1	0	5
30	32	-1	0	0	0
32	33	-1	0	0	0
33	31	-1	1	0	5
32	34	-1	0	0	0
34	35	-1	0	0	0
35	33	-1	1	0	5
34	36	-1	0	0	0
36	37	-1	0	0	0
37	35	-1	1	0	5
36	38	-1	0	0	0
38	39	-1	0	0	0
39	37	-1	1	0	5
38	40	-1	0	0	0
40	41	-1	0	0	0
41	39	-1	1	0	5
40	42	-1	0	0	0
42	43	-1	0	0	0
43	41	-1	1	0	5
42	44	-1	0	0	0
44	45	-1	0	0	0
45	43	-1	1	0	5
44	46	-1	0	0	0
46	47	-1	0	0	0
47	45	-1	1	0	5
46	48	-1	0	0	0
48	49	-1	0	0	0
49	47	-1	1	0	5
48	50	-1	0	0	0
50	51	-1	0	0	0
51	49	-1	1	0	5
52	51	-1	1	0	5
53	52	-1	1	0	5
54	53	-1	1	0	5
55	54	-1	1	0	5
56	55	-1	1	0	5
57	58	-1	0	0	0
58	56	-1	1	0	5
57	59	-1	0	0	0
59	60	-1	0	0	0
60	58	-1	1	0	5
59	61	-1	0	0	0
61	62	-1	0	0	0
62	60	-1	1	0	5
1	63	-1	0	0	0
63	64	-1	0	0	0
64	2	-1	0	0	0
64	65	-1	0	0	0
65	4	-1	0	0	0
66	8	-1	0	0	0
66	67	-1	0	0	0
67	10	-1	0	0	0
67	68	-1	0	0	0
68	12	-1	0	0	0
68	69	-1	0	0	0
69	14	-1	0	0	0
69	70	-1	0	0	0
70	16	-1	0	0	0
70	71	-1	0	0	0
71	18	-1	0	0	0
71	72	-1	0	0	0
72	20	-1	0	0	0
73	24	-1	0	0	0
73	74	-1	0	0	0
74	26	-1	0	0	0
74	75	-1	0	0	0
75	28	-1	0	0	0
75	76	-1	0	0	0
76	30	-1	0	0	0
76	77	-1	0	0	0
77	32	-1	0	0	0
77	78	-1	0	0	0
78	34	-1	0	0	0
78	79	-1	0	0	0
79	36	-1	0	0	0
79	80	-1	0	0	0
80	38	-1	0	0	0
80	81	-1	0	0	0
81	40	-1	0	0	0
81	82	-1	0	0	0
82	42	-1	0	0	0
82	83	-1	0	0	0
83	44	-1	0	0	0
83	84	-1	0	0	0
84	46	-1	0	0	0
84	85	-1	0	0	0
85	48	-1	0	0	0
85	86	-1	0	0	0
86	50	-1	0	0	0
87	57	-1	0	0	0
87	88	-1	0	0	0
88	59	-1	0	0	0
88	89	-1	0	0	0
89	61	-1	0	0	0
63	90	-1	0	0	0
90	91	-1	0	0	0
91	64	-1	0	0	0
91	92	-1	0	0	0
92	65	-1	0	0	0
93	66	-1	0	0	0
93	94	-1	0	0	0
94	67	-1	0	0	0
94	95	-1	0	0	0
95	68	-1	0	0	0
95	96	-1	0	0	0
96	69	-1	0	0	0
96	97	-1	0	0	0
97	70	-1	0	0	0
97	98	-1	0	0	0
98	71	-1	0	0	0
98	99	-1	0	0	0
99	72	-1	0	0	0
100	73	-1	0	0	0
100	101	-1	0	0	0
101	74	-1	0	0	0
101	102	-1	0	0	0
102	75	-1	0	0	0
102	103	-1	0	0	0
103	76	-1	0	0	0
103	104	-1	0	0	0
104	77	-1	0	0	0
104	105	-1	0	0	0
105	78	-1	0	0	0
105	106	-1	0	0	0
106	79	-1	0	0	0
106	107	-1	0	0	0
107	80	-1	0	0	0
107	108	-1	0	0	0
108	81	-1	0	0	0
108	109	-1	0	0	0
109	82	-1	0	0	0
109	110	-1	0	0	0
110	83	-1	0	0	0
110	111	-1	0	0	0
111	84	-1	0	0	0
111	112	-1	0	0	0
112	85	-1	0	0	0
112	113	-1	0	0	0
113	86	-1	0	0	0
114	87	-1	0	0	0
114	115	-1	0	0	0
115	88	-1	0	0	0
115	116	-1	0	0	0
116	89	-1	0	0	0
90	117	-1	0	0	0
117	118	-1	0	0	0
118	91	-1	0	0	0
118	119	-1	0	0	0
119	92	-1	0	0	0
120	93	-1	0	0	0
120	121	-1	0	0	0
121	94	-1	0	0	0
121	122	-1	0	0	0
122	95	-1	0	0	0
122	123	-1	0	0	0
123	96	-1	0	0	0
123	124	-1	0	0	0
124	97	-1	0	0	0
124	125	-1	0	0	0
125	98	-1	0	0	0
125	126	-1	0	0	0
126	99	-1	0	0	0
127	100	-1	0	0	0
127	128	-1	0	0	0
128	101	-1	0	0	0
128	129	-1	0	0	0
129	102	-1	0	0	0
129	130	-1	0	0	0
130	103	-1	0	0	0
130	131	-1	0	0	0
131	104	-1	0	0	0
131	132	-1	0	0	0
132	105	-1	0	0	0
132	133	-1	0	0	0
133	106	-1	0	0	0
133	134	-1	0	0	0
134	107	-1	0	0	0
134	135	-1	0	0	0
135	108	-1	0	0	0
135	136	-1	0	0	0
136	109	-1	0	0	0
136	137	-1	0	0	0
137	110	-1	0	0	0
137	138	-1	0	0	0
138	111	-1	0	0	0
138	139	-1	0	0	0
139	112	-1	0	0	0
139	140	-1	0	0	0
140	113	-1	0	0	0
141	114	-1	0	0	0
141	142	-1	0	0	0
142	115	-1	0	0	0
142	143	-1	0	0	0
143	116	-1	0	0	0
117	144	-1	0	0	0
144	145	-1	0	0	0
145	118	-1	0	0	0
145	146	-1	0	0	0
146	119	-1	0	0	0
147	120	-1	0	0	0
147	148	-1	0	0	0
148	121	-1	0	0	0
148	149	-1	0	0	0
149	122	-1	0	0	0
149	150	-1	0	0	0
150	123	-1	0	0	0
150	151	-1	0	0	0
151	124	-1	0	0	0
151	152	-1	0	0	0
152	125	-1	0	0	0
152	153	-1	0	0	0
153	126	-1	0	0	0
154	127	-1	0	0	0
154	155	-1	0	0	0
155	128	-1	0	0	0
155	156	-1	0	0	0
156	129	-1	0	0	0
156	157	-1	0	0	0
157	130	-1	0	0	0
157	158	-1	0	0	0
158	131	-1	0	0	0
158	159	-1	0	0	0
159	132	-1	0	0	0
159	160	-1	0	0	0
160	133	-1	0	0	0
160	161	-1	0	0	0
161	134	-1	0	0	0
161	162	-1	0	0	0
162	135	-1	0	0	0
162	163	-1	0	0	0
163	136	-1	0	0	0
163	164	-1	0	0	0
164	137	-1	0	0	0
164	165	-1	0	0	0
165	138	-1	0	0	0
165	166	-1	0	0	0
166	139	-1	0	0	0
166	167	-1	0	0	0
167	140	-1	0	0	0
168	141	-1	0	0	0
168	169	-1	0	0	0
169	142	-1	0	0	0
169	170	-1	0	0	0
170	143	-1	0	0	0
144	171	-1	0	0	0
171	172	-1	0	0	0
172	145	-1	0	0	0
172	173	-1	0	0	0
173	146	-1	0	0	0
174	147	-1	0	0	0
174	175	-1	0	0	0
175	148	-1	0	0	0
175	176	-1	0	0	0
176	149	-1	0	0	0
176	177	-1	0	0	0
177	150	-1	0	0	0
177	178	-1	0	0	0
178	151	-1	0	0	0
178	179	-1	0	0	0
179	152	-1	0	0	0
179	180	-1	0	0	0
180	153	-1	0	0	0
181	154	-1	0	0	0
181	182	-1	0	0	0
182	155	-1	0	0	0
182	183	-1	0	0	0
183	156	-1	0	0	0
183	184	-1	0	0	0
184	157	-1	0	0	0
184	185	-1	0	0	0
185	158	-1	0	0	0
185	186	-1	0	0	0
186	159	-1	0	0	0
186	187	-1	0	0	0
187	160	-1	0	0	0
187	188	-1	0	0	0
188	161	-1	0	0	0
188	189	-1	0	0	0
189	162	-1	0	0	0
189	190	-1	0	0	0
190	163	-1	0	0	0
190	191	-1	0	0	0
191	164	-1	0	0	0
191	192	-1	0	0	0
192	165	-1	0	0	0
192	193	-1	0	0	0
193	166	-1	0	0	0
193	194	-1	0	0	0
194	167	-1	0	0	0
195	168	-1	0	0	0
195	196	-1	0	0	0
196	169	-1	0	0	0
196	197	-1	0	0	0
197	170	-1	0	0	0
171	198	-1	0	0	0
198	199	-1	0	0	0
199	172	-1	0	0	0
199	200	-1	0	0	0
200	173	-1	0	0	0
201	174	-1	0	0	0
201	202	-1	0	0	0
202	175	-1	0	0	0
202	203	-1	0	0	0
203	176	-1	0	0	0
203	204	-1	0	0	0
204	177	-1	0	0	0
204	205	-1	0	0	0
205	178	-1	0	0	0
205	206	-1	0	0	0
206	179	-1	0	0	0
206	207	-1	0	0	0
207	180	-1	0	0	0
208	181	-1	0	0	0
208	209	-1	0	0	0
209	182	-1	0	0	0
209	210	-1	0	0	0
210	183	-1	0	0	0
210	211	-1	0	0	0
211	184	-1	0	0	0
211	212	-1	0	0	0
212	185	-1	0	0	0
212	213	-1	0	0	0
213	186	-1	0	0	0
213	214	-1	0	0	0
214	187	-1	0	0	0
214	215	-1	0	0	0
215	188	-1	0	0	0
215	216	-1	0	0	0
216	189	-1	0	0	0
216	217	-1	0	0	0
217	190	-1	0	0	0
217	218	-1	0	0	0
218	191	-1	0	0	0
218	219	-1	0	0	0
219	192	-1	0	0	0
219	220	-1	0	0	0
220	193	-1	0	0	0
220	221	-1	0	0	0
221	194	-1	0	0	0
222	195	-1	0	0	0
222	223	-1	0	0	0
223	196	-1	0	0	0
223	224	-1	0	0	0
224	197	-1	0	0	0
198	225	-1	0	0	0
225	226	-1	0	0	0
226	199	-1	0	0	0
226	227	-1	0	0	0
227	200	-1	0	0	0
228	201	-1	0	0	0
228	229	-1	0	0	0
229	202	-1	0	0	0
229	230	-1	0	0	0
230	203	-1	0	0	0
230	231	-1	0	0	0
231	204	-1	0	0	0
231	232	-1	0	0	0
232	205	-1	0	0	0
232	233	-1	0	0	0
233	206	-1	0	0	0
233	234	-1	0	0	0
234	207	-1	0	0	0
235	208	-1	0	0	0
235	236	-1	0	0	0
236	209	-1	0	0	0
236	237	-1	0	0	0
237	210	-1	0	0	0
237	238	-1	0	0	0
238	211	-1	0	0	0
238	239	-1	0	0	0
239	212	-1	0	0	0
239	240	-1	0	0	0
240	213	-1	0	0	0
240	241	-1	0	0	0
241	214	-1	0	0	0
241	242	-1	0	0	0
242	215	-1	0	0	0
242	243	-1	0	0	0
243	216	-1	0	0	0
243	244	-1	0	0	0
244	217	-1	0	0	0
244	245	-1	0	0	0
245	218	-1	0	0	0
245	246	-1	0	0	0
246	219	-1	0	0	0
246	247	-1	0	0	0
247	220	-1	0	0	0
247	248	-1	0	0	0
248	221	-1	0	0	0
249	222	-1	0	0	0
249	250	-1	0	0	0
250	223	-1	0	0	0
250	251	-1	0	0	0
251	224	-1	0	0	0
225	252	-1	0	0	0
252	253	-1	0	0	0
253	226	-1	0	0	0
253	254	-1	0	0	0
254	227	-1	0	0	0
254	255	-1	0	0	0
255	256	-1	0	0	0
256	257	-1	0	0	0
257	228	-1	0	0	0
257	258	-1	0	0	0
258	229	-1	0	0	0
258	259	-1	0	0	0
259	230	-1	0	0	0
259	260	-1	0	0	0
260	231	-1	0	0	0
260	261	-1	0	0	0
261	232	-1	0	0	0
261	262	-1	0	0	0
262	233	-1	0	0	0
262	263	-1	0	0	0
263	234	-1	0	0	0
263	264	-1	0	0	0
264	265	-1	0	0	0
265	266	-1	0	0	0
266	235	-1	0	0	0
266	267	-1	0	0	0
267	236	-1	0	0	0
267	268	-1	0	0	0
268	237	-1	0	0	0
268	269	-1	0	0	0
269	238	-1	0	0	0
269	270	-1	0	0	0
270	239	-1	0	0	0
270	271	-1	0	0	0
271	240	-1	0	0	0
271	272	-1	0	0	0
272	241	-1	0	0	0
272	273	-1	0	0	0
273	242	-1	0	0	0
273	274	-1	0	0	0
274	243	-1	0	0	0
274	275	-1	0	0	0
275	244	-1	0	0	0
275	276	-1	0	0	0
276	245	-1	0	0	0
276	277	-1	0	0	0
277	246	-1	0	0	0
277	278	-1	0	0	0
278	247	-1	0	0	0
278	279	-1	0	0	0
279	248	-1	0	0	0
280	249	-1	0	0	0
280	281	-1	0	0	0
281	250	-1	0	0	0
281	282	-1	0	0	0
282	251	-1	0	0	0
252	283	-1	0	0	0
283	284	-1	0	0	0
284	253	-1	0	0	0
284	285	-1	0	0	0
285	254	-1	0	0	0
285	286	-1	0	0	0
286	255	-1	0	0	0
286	287	-1	0	0	0
287	256	-1	0	0	0
287	288	-1	0	0	0
288	257	-1	0	0	0
288	289	-1	0	0	0
289	258	-1	0	0	0
289	290	-1	0	0	0
290	259	-1	0	0	0
290	291	-1	0	0	0
291	260	-1	0	0	0
291	292	-1	0	0	0
292	261	-1	0	0	0
292	293	-1	0	0	0
293	262	-1	0	0	0
293	294	-1	0	0	0
294	263	-1	0	0	0
294	295	-1	0	0	0
295	264	-1	0	0	0
295	296	-1	0	0	0
296	265	-1	0	0	0
296	297	-1	0	0	0
297	266	-1	0	0	0
297	298	-1	0	0	0
298	267	-1	0	0	0
298	299	-1	0	0	0
299	268	-1	0	0	0
299	300	-1	0	0	0
300	269	-1	0	0	0
300	301	-1	0	0	0
301	270	-1	0	0	0
301	302	-1	0	0	0
302	271	-1	0	0	0
302	303	-1	0	0	0
303	272	-1	0	0	0
303	304	-1	0	0	0
304	273	-1	0	0	0
304	305	-1	0	0	0
305	274	-1	0	0	0
305	306	-1	0	0	0
306	275	-1	0	0	0
306	307	-1	0	0	0
307	276	-1	0	0	0
307	308	-1	0	0	0
308	277	-1	0	0	0
308	309	-1	0	0	0
309	278	-1	0	0	0
309	310	-1	0	0	0
310	279	-1	0	0	0
311	280	-1	0	0	0
311	312	-1	0	0	0
312	281	-1	0	0	0
312	313	-1	0	0	0
313	282	-1	0	0	0
283	314	-1	0	0	0
314	315	-1	0	0	0
315	284	-1	0	0	0
315	316	-1	0	0	0
316	285	-1	0	0	0
316	317	-1	0	0	0
317	286	-1	0	0	0
317	318	-1	0	0	0
318	287	-1	0	0	0
318	319	-1	0	0	0
319	288	-1	0	0	0
319	320	-1	0	0	0
320	289	-1	0	0	0
320	321	-1	0	0	0
321	290	-1	0	0	0
321	322	-1	0	0	0
322	291	-1	0	0	0
322	323	-1	0	0	0
323	292	-1	0	0	0
323	324	-1	0	0	0
324	293	-1	0	0	0
324	325	-1	0	0	0
325	294	-1	0	0	0
325	326	-1	0	0	0
326	295	-1	0	0	0
326	327	-1	0	0	0
327	296	-1	0	0	0
327	328	-1	0	0	0
328	297	-1	0	0	0
328	329	-1	0	0	0
329	298	-1	0	0	0
329	330	-1	0	0	0
330	299	-1	0	0	0
330	331	-1	0	0	0
331	300	-1	0	0	0
331	332	-1	0	0	0
332	301	-1	0	0	0
332	333	-1	0	0	0
333	302	-1	0	0	0
333	334	-1	0	0	0
334	303	-1	0	0	0
334	335	-1	0	0	0
335	304	-1	0	0	0
335	336	-1	0	0	0
336	305	-1	0	0	0
336	337	-1	0	0	0
337	306	-1	0	0	0
337	338	-1	0	0	0
338	307	-1	0	0	0
338	339	-1	0	0	0
339	308	-1	0	0	0
339	340	-1	0	0	0
340	309	-1	0	0	0
340	341	-1	0	0	0
341	310	-1	0	0	0
342	311	-1	0	0	0
342	343	-1	0	0	0
343	312	-1	0	0	0
343	344	-1	0	0	0
344	313	-1	0	0	0
314	345	-1	0	0	0
345	346	-1	0	0	0
346	315	-1	0	0	0
346	347	-1	0	0	0
347	316	-1	0	0	0
347	348	-1	0	0	0
348	317	-1	0	0	0
348	349	-1	0	0	0
349	318	-1	0	0	0
349	350	-1	0	0	0
350	319	-1	0	0	0
350	351	-1	0	0	0
351	320	-1	0	0	0
351	352	-1	0	0	0
352	321	-1	0	0	0
352	353	-1	0	0	0
353	322	-1	0	0	0
353	354	-1	0	0	0
354	323	-1	0	0	0
354	355	-1	0	0	0
355	324	-1	0	0	0
355	356	-1	0	0	0
356	325	-1	0	0	0
356	357	-1	0	0	0
357	326	-1	0	0	0
357	358	-1	0	0	0
358	327	-1	0	0	0
358	359	-1	0	0	0
359	328	-1	0	0	0
359	360	-1	0	0	0
360	329	-1	0	0	0
360	361	-1	0	0	0
361	330	-1	0	0	0
361	362	-1	0	0	0
362	331	-1	0	0	0
362	363	-1	0	0	0
363	332	-1	0	0	0
363	364	-1	0	0	0
364	333	-1	0	0	0
364	365	-1	0	0	0
365	334	-1	0	0	0
365	366	-1	0	0	0
366	335	-1	0	0	0
366	367	-1	0	0	0
367	336	-1	0	0	0
367	368	-1	0	0	0
368	337	-1	0	0	0
368	369	-1	0	0	0
369	338	-1	0	0	0
369	370	-1	0	0	0
370	339	-1	0	0	0
370	371	-1	0	0	0
371	340	-1	0	0	0
371	372	-1	0	0	0
372	341	-1	0	0	0
373	342	-1	0	0	0
373	374	-1	0	0	0
374	343	-1	0	0	0
374	375	-1	0	0	0
375	344	-1	0	0	0
345	376	-1	0	0	0
376	377	-1	0	0	0
377	346	-1	0	0	0
377	378	-1	0	0	0
378	347	-1	0	0	0
378	379	-1	0	0	0
379	348	-1	0	0	0
379	380	-1	0	0	0
380	349	-1	0	0	0
380	381	-1	0	0	0
381	350	-1	0	0	0
381	382	-1	0	0	0
382	351	-1	0	0	0
382	383	-1	0	0	0
383	352	-1	0	0	0
383	384	-1	0	0	0
384	353	-1	0	0	0
384	385	-1	0	0	0
385	354	-1	0	0	0
385	386	-1	0	0	0
386	355	-1	0	0	0
386	387	-1	0	0	0
387	356	-1	0	0	0
387	388	-1	0	0	0
388	357	-1	0	0	0
388	389	-1	0	0	0
389	358	-1	0	0	0
389	390	-1	0	0	0
390	359	-1	0	0	0
390	391	-1	0	0	0
391	360	-1	0	0	0
391	392	-1	0	0	0
392	361	-1	0	0	0
392	393	-1	0	0	0
393	362	-1	0	0	0
393	394	-1	0	0	0
394	363	-1	0	0	0
394	395	-1	0	0	0
395	364	-1	0	0	0
395	396	-1	0	0	0
396	365	-1	0	0	0
396	397	-1	0	0	0
397	366	-1	0	0	0
397	398	-1	0	0	0
398	367	-1	0	0	0
398	399	-1	0	0	0
399	368	-1	0	0	0
399	400	-1	0	0	0
400	369	-1	0	0	0
400	401	-1	0	0	0
401	370	-1	0	0	0
401	402	-1	0	0	0
402	371	-1	0	0	0
402	403	-1	0	0	0
403	372	-1	0	0	0
404	373	-1	0	0	0
404	405	-1	0	0	0
405	374	-1	0	0	0
405	406	-1	0	0	0
406	375	-1	0	0	0
376	407	-1	0	0	0
407	408	-1	0	0	0
408	377	-1	0	0	0
408	409	-1	0	0	0
409	378	-1	0	0	0
409	410	-1	0	0	0
410	379	-1	0	0	0
410	411	-1	0	0	0
411	380	-1	0	0	0
411	412	-1	0	0	0
412	381	-1	0	0	0
412	413	-1	0	0	0
413	382	-1	0	0	0
413	414	-1	0	0	0
414	383	-1	0	0	0
414	415	-1	0	0	0
415	384	-1	0	0	0
415	416	-1	0	0	0
416	385	-1	0	0	0
416	417	-1	0	0	0
417	386	-1	0	0	0
417	418	-1	0	0	0
418	387	-1	0	0	0
418	419	-1	0	0	0
419	388	-1	0	0	0
419	420	-1	0	0	0
420	389	-1	0	0	0
420	421	-1	0	0	0
421	390	-1	0	0	0
421	422	-1	0	0	0
422	391	-1	0	0	0
422	423	-1	0	0	0
423	392	-1	0	0	0
423	424	-1	0	0	0
424	393	-1	0	0	0
424	425	-1	0	0	0
425	394	-1	0	0	0
425	426	-1	0	0	0
426	395	-1	0	0	0
426	427	-1	0	0	0
427	396	-1	0	0	0
427	428	-1	0	0	0
428	397	-1	0	0	0
428	429	-1	0	0	0
429	398	-1	0	0	0
429	430	-1	0	0	0
430	399	-1	0	0	0
430	431	-1	0	0	0
431	400	-1	0	0	0
431	432	-1	0	0	0
432	401	-1	0	0	0
432	433	-1	0	0	0
433	402	-1	0	0	0
433	434	-1	0	0	0
434	403	-1	0	0	0
435	404	-1	0	0	0
435	436	-1	0	0	0
436	405	-1	0	0	0
436	437	-1	0	0	0
437	406	-1	0	0	0
407	438	-1	0	0	0
438	439	-1	0	0	0
439	408	-1	0	0	0
439	440	-1	0	0	0
440	409	-1	0	0	0
440	441	-1	0	0	0
441	410	-1	0	0	0
441	442	-1	0	0	0
442	411	-1	0	0	0
442	443	-1	0	0	0
443	412	-1	0	0	0
443	444	-1	0	0	0
444	413	-1	0	0	0
444	445	-1	0	0	0
445	414	-1	0	0	0
445	446	-1	0	0	0
446	415	-1	0	0	0
446	447	-1	0	0	0
447	416	-1	0	0	0
447	448	-1	0	0	0
448	417	-1	0	0	0
448	449	-1	0	0	0
449	418	-1	0	0	0
449	450	-1	0	0	0
450	419	-1	0	0	0
450	451	-1	0	0	0
451	420	-1	0	0	0
451	452	-1	0	0	0
452	421	-1	0	0	0
452	453	-1	0	0	0
453	422	-1	0	0	0
453	454	-1	0	0	0
454	423	-1	0	0	0
454	455	-1	0	0	0
455	424	-1	0	0	0
455	456	-1	0	0	0
456	425	-1	0	0	0
456	457	-1	0	0	0
457	426	-1	0	0	0
457	458	-1	0	0	0
458	427	-1	0	0	0
458	459	-1	0	0	0
459	428	-1	0	0	0
459	460	-1	0	0	0
460	429	-1	0	0	0
460	461	-1	0	0	0
461	430	-1	0	0	0
461	462	-1	0	0	0
462	431	-1	0	0	0
462	463	-1	0	0	0
463	432	-1	0	0	0
463	464	-1	0	0	0
464	433	-1	0	0	0
464	465	-1	0	0	0
465	434	-1	0	0	0
465	466	-1	0	0	0
466	467	-1	0	0	0
467	468	-1	0	0	0
468	469	-1	0	0	0
469	470	-1	0	0	0
470	471	-1	0	0	0
471	435	-1	0	0	0
471	472	-1	0	0	0
472	436	-1	0	0	0
472	473	-1	0	0	0
473	437	-1	0	0	0
438	474	-1	0	0	0
474	475	-1	0	0	0
475	439	-1	0	0	0
475	476	-1	0	0	0
476	440	-1	0	0	0
476	477	-1	0	0	0
477	441	-1	0	0	0
477	478	-1	0	0	0
478	442	-1	0	0	0
478	479	-1	0	0	0
479	443	-1	0	0	0
479	480	-1	0	0	0
480	444	-1	0	0	0
480	481	-1	0	0	0
481	445	-1	0	0	0
481	482	-1	0	0	0
482	446	-1	0	0	0
482	483	-1	0	0	0
483	447	-1	0	0	0
483	484	-1	0	0	0
484	448	-1	0	0	0
484	485	-1	0	0	0
485	449	-1	0	0	0
485	486	-1	0	0	0
486	450	-1	0	0	0
486	487	-1	0	0	0
487	451	-1	0	0	0
487	488	-1	0	0	0
488	452	-1	0	0	0
488	489	-1	0	0	0
489	453	-1	0	0	0
489	490	-1	0	0	0
490	454	-1	0	0	0
490	491	-1	0	0	0
491	455	-1	0	0	0
491	492	-1	0	0	0
492	456	-1	0	0	0
492	493	-1	0	0	0
493	457	-1	0	0	0
493	494	-1	0	0	0
494	458	-1	0	0	0
494	495	-1	0	0	0
495	459	-1	0	0	0
495	496	-1	0	0	0
496	460	-1	0	0	0
496	497	-1	0	0	0
497	461	-1	0	0	0
497	498	-1	0	0	0
498	462	-1	0	0	0
498	499	-1	0	0	0
499	463	-1	0	0	0
499	500	-1	0	0	0
500	464	-1	0	0	0
500	501	-1	0	0	0
501	465	-1	0	0	0
501	502	-1	0	0	0
502	466	-1	0	0	0
502	503	-1	0	0	0
503	467	-1	0	0	0
503	504	-1	0	0	0
504	468	-1	0	0	0
504	505	-1	0	0	0
505	469	-1	0	0	0
505	506	-1	0	0	0
506	470	-1	0	0	0
506	507	-1	0	0	0
507	471	-1	0	0	0
507	508	-1	0	0	0
508	472	-1	0	0	0
508	509	-1	0	0	0
509	473	-1	0	0	0
474	510	-1	0	0	0
510	511	-1	0	0	0
511	475	-1	0	0	0
511	512	-1	0	0	0
512	476	-1	0	0	0
512	513	-1	0	0	0
513	477	-1	0	0	0
513	514	-1	0	0	0
514	478	-1	0	0	0
514	515	-1	0	0	0
515	479	-1	0	0	0
515	516	-1	0	0	0
516	480	-1	0	0	0
516	517	-1	0	0	0
517	481	-1	0	0	0
517	518	-1	0	0	0
518	482	-1	0	0	0
518	519	-1	0	0	0
519	483	-1	0	0	0
519	520	-1	0	0	0
520	484	-1	0	0	0
520	521	-1	0	0	0
521	485	-1	0	0	0
521	522	-1	0	0	0
522	486	-1	0	0	0
522	523	-1	0	0	0
523	487	-1	0	0	0
523	524	-1	0	0	0
524	488	-1	0	0	0
524	525	-1	0	0	0
525	489	-1	0	0	0
525	526	-1	0	0	0
526	490	-1	0	0	0
526	527	-1	0	0	0
527	491	-1	0	0	0
527	528	-1	0	0	0
528	492	-1	0	0	0
528	529	-1	0	0	0
529	493	-1	0	0	0
529	530	-1	0	0	0
530	494	-1	0	0	0
530	531	-1	0	0	0
531	495	-1	0	0	0
531	532	-1	0	0	0
532	496	-1	0	0	0
532	533	-1	0	0	0
533	497	-1	0	0	0
533	534	-1	0	0	0
534	498	-1	0	0	0
534	535	-1	0	0	0
535	499	-1	0	0	0
535	536	-1	0	0	0
536	500	-1	0	0	0
536	537	-1	0	0	0
537	501	-1	0	0	0
537	538	-1	0	0	0
538	502	-1	0	0	0
538	539	-1	0	0	0
539	503	-1	0	0	0
539	540	-1	0	0	0
540	504	-1	0	0	0
540	541	-1	0	0	0
541	505	-1	0	0	0
541	542	-1	0	0	0
542	506	-1	0	0	0
542	543	-1	0	0	0
543	507	-1	0	0	0
543	544	-1	0	0	0
544	508	-1	0	0	0
544	545	-1	0	0	0
545	509	-1	0	0	0
547	548	-1	2	0	0
548	549	-1	2	0	0
549	550	-1	2	0	0
550	0	-1	1	0	5
62	547	-1	1	0	5
[NumArcSegments] = 0
[NumHoles] = 0
[NumBlockLabels] = 455
0.5	0.5	1	0.5	0	0	0	1	0
0.5	1.5	1	0.5	0	0	0	1	0
0.5	8.5	1	0.5	0	0	0	1	0
0.5	9.5	1	0.5	0	0	0	1	0
0.5	10.5	1	0.5	0	0	0	1	0
0.5	14.5	1	0.5	0	0	0	1	0
0.5	15.5	1	0.5	0	0	0	1	0
0.5	16.5	1	0.5	0	0	0	1	0
0.5	17.5	1	0.5	0	0	0	1	0
0.5	18.5	1	0.5	0	0	0	1	0
0.5	19.5	1	0.5	0	0	0	1	0
0.5	20.5	1	0.5	0	0	0	1	0
0.5	21.5	1	0.5	0	0	0	1	0
0.5	22.5	1	0.5	0	0	0	1	0
0.5	23.5	1	0.5	0	0	0	1	0
0.5	24.5	1	0.5	0	0	0	1	0
0.5	25.5	1	0.5	0	0	0	1	0
0.5	26.5	1	0.5	0	0	0	1	0
0.5	33.5	1	0.5	0	0	0	1	0
0.5	34.5	1	0.5	0	0	0	1	0
1.5	0.5	1	0.5	0	0	0	1	0
1.5	1.5	1	0.5	0	0	0	1	0
1.5	8.5	1	0.5	0	0	0	1	0
1.5	9.5	1	0.5	0	0	0	1	0
1.5	10.5	1	0.5	0	0	0	1	0
1.5	14.5	1	0.5	0	0	0	1	0
1.5	15.5	1	0.5	0	0	0	1	0
1.5	16.5	1	0.5	0	0	0	1	0
1.5	17.5	1	0.5	0	0	0	1	0
1.5	18.5	1	0.5	0	0	0	1	0
1.5	19.5	1	0.5	0	0	0	1	0
1.5	20.5	1	0.5	0	0	0	1	0
1.5	21.5	1	0.5	0	0	0	1	0
1.5	22.5	1	0.5	0	0	0	1	0
1.5	23.5	1	0.5	0	0	0	1	0
1.5	24.5	1	0.5	0	0	0	1	0
1.5	25.5	1	0.5	0	0	0	1	0
1.5	26.5	1	0.5	0	0	0	1	0
1.5	33.5	1	0.5	0	0	0	1	0
1.5	34.5	1	0.5	0	0	0	1	0
2.5	0.5	1	0.5	0	0	0	1	0
2.5	1.5	1	0.5	0	0	0	1	0
2.5	8.5	1	0.5	0	0	0	1	0
2.5	9.5	1	0.5	0	0	0	1	0
2.5	10.5	1	0.5	0	0	0	1	0
2.5	14.5	1	0.5	0	0	0	1	0
2.5	15.5	1	0.5	0	0	0	1	0
2.5	16.5	1	0.5	0	0	0	1	0
2.5	17.5	1	0.5	0	0	0	1	0
2.5	18.5	1	0.5	0	0	0	1	0
2.5	19.5	1	0.5	0	0	0	1	0
2.5	20.5	1	0.5	0	0	0	1	0
2.5	21.5	1	0.5	0	0	0	1	0
2.5	22.5	1	0.5	0	0	0	1	0
2.5	23.5	1	0.5	0	0	0	1	0
2.5	24.5	1	0.5	0	0	0	1	0
2.5	25.5	1	0.5	0	0	0	1	0
2.5	26.5	1	0.5	0	0	0	1	0
2.5	33.5	1	0.5	0	0	0	1	0
2.5	34.5	1	0.5	0	0	0	1	0
3.5	0.5	1	0.5	0	0	0	1	0
3.5	1.5	1	0.5	0	0	0	1	0
3.5	8.5	1	0.5	0	0	0	1	0
3.5	9.5	1	0.5	0	0	0	1	0
3.5	10.5	1	0.5	0	0	0	1	0
3.5	14.5	1	0.5	0	0	0	1	0
3.5	15.5	1	0.5	0	0	0	1	0
3.5	16.5	1	0.5	0	0	0	1	0
3.5	17.5	1	0.5	0	0	0	1	0
3.5	18.5	1	0.5	0	0	0	1	0
3.5	19.5	1	0.5	0	0	0	1	0
3.5	20.5	1	0.5	0	0	0	1	0
3.5	21.5	1	0.5	0	0	0	1	0
3.5	22.5	1	0.5	0	0	0	1	0
3.5	23.5	1	0.5	0	0	0	1	0
3.5	24.5	1	0.5	0	0	0	1	0
3.5	25.5	1	0.5	0	0	0	1	0
3.5	26.5	1	0.5	0	0	0	1	0
3.5	33.5	1	0.5	0	0	0	1	0
3.5	34.5	1	0.5	0	0	0	1	0
4.5	0.5	1	0.5	0	0	0	1	0
4.5	1.5	1	0.5	0	0	0	1	0
4.5	8.5	1	0.5	0	0	0	1	0
4.5	9.5	1	0.5	0	0	0	1	0
4.5	10.5	1	0.5	0	0	0	1	0
4.5	14.5	1	0.5	0	0	0	1	0
4.5	15.5	1	0.5	0	0	0	1	0
4.5	16.5	1	0.5	0	0	0	1	0
4.5	17.5	1	0.5	0	0	0	1	0
4.5	18.5	1	0.5	0	0	0	1	0
4.5	19.5	1	0.5	0	0	0	1	0
4.5	20.5	1	0.5	0	0	0	1	0
4.5	21.5	1	0.5	0	0	0	1	0
4.5	22.5	1	0.5	0	0	0	1	0
4.5	23.5	1	0.5	0	0	0	1	0
4.5	24.5	1	0.5	0	0	0	1	0
4.5	25.5	1	0.5	0	0	0	1	0
4.5	26.5	1	0.5	0	0	0	1	0
4.5	33.5	1	0.5	0	0	0	1	0
4.5	34.5	1	0.5	0	0	0	1	0
5.5	0.5	1	0.5	0	0	0	1	0
5.5	1.5	1	0.5	0	0	0	1	0
5.5	8.5	1	0.5	0	0	0	1	0
5.5	9.5	1	0.5	0	0	0	1	0
5.5	10.5	1	0.5	0	0	0	1	0
5.5	14.5	1	0.5	0	0	0	1	0
5.5	15.5	1	0.5	0	0	0	1	0
5.5	16.5	1	0.5	0	0	0	1	0
5.5	17.5	1	0.5	0	0	0	1	0
5.5	18.5	1	0.5	0	0	0	1	0
5.5	19.5	1	0.5	0	0	0	1	0
5.5	20.5	1	0.5	0	0	0	1	0
5.5	21.5	1	0.5	0	0	0	1	0
5.5	22.5	1	0.5	0	0	0	1	0
5.5	23.5	1	0.5	0	0	0	1	0
5.5	24.5	1	0.5	0	0	0	1	0
5.5	25.5	1	0.5	0	0	0	1	0
5.5	26.5	1	0.5	0	0	0	1	0
5.5	33.5	1	0.5	0	0	0	1	0
5.5	34.5	1	0.5	0	0	0	1	0
6.5	0.5	1	0.5	0	0	0	1	0
6.5	1.5	1	0.5	0	0	0	1	0
6.5	8.5	1	0.5	0	0	0	1	0
6.5	9.5	1	0.5	0	0	0	1	0
6.5	10.5	1	0.5	0	0	0	1	0
6.5	14.5	1	0.5	0	0	0	1	0
6.5	15.5	1	0.5	0	0	0	1	0
6.5	16.5	1	0.5	0	0	0	1	0
6.5	17.5	1	0.5	0	0	0	1	0
6.5	18.5	1	0.5	0	0	0	1	0
6.5	19.5	1	0.5	0	0	0	1	0
6.5	20.5	1	0.5	0	0	0	1	0
6.5	21.5	1	0.5	0	0	0	1	0
6.5	22.5	1	0.5	0	0	0	1	0
6.5	23.5	1	0.5	0	0	0	1	0
6.5	24.5	1	0.5	0	0	0	1	0
6.5	25.5	1	0.5	0	0	0	1	0
6.5	26.5	1	0.5	0	0	0	1	0
6.5	33.5	1	0.5	0	0	0	1	0
6.5	34.5	1	0.5	0	0	0	1	0
7.5	0.5	1	0.5	0	0	0	1	0
7.5	1.5	1	0.5	0	0	0	1	0
7.5	8.5	1	0.5	0	0	0	1	0
7.5	9.5	1	0.5	0	0	0	1	0
7.5	10.5	1	0.5	0	0	0	1	0
7.5	14.5	1	0.5	0	0	0	1	0
7.5	15.5	1	0.5	0	0	0	1	0
7.5	16.5	1	0.5	0	0	0	1	0
7.5	17.5	1	0.5	0	0	0	1	0
7.5	18.5	1	0.5	0	0	0	1	0
7.5	19.5	1	0.5	0	0	0	1	0
7.5	20.5	1	0.5	0	0	0	1	0
7.5	21.5	1	0.5	0	0	0	1	0
7.5	22.5	1	0.5	0	0	0	1	0
7.5	23.5	1	0.5	0	0	0	1	0
7.5	24.5	1	0.5	0	0	0	1	0
7.5	25.5	1	0.5	0	0	0	1	0
7.5	26.5	1	0.5	0	0	0	1	0
7.5	33.5	1	0.5	0	0	0	1	0
7.5	34.5	1	0.5	0	0	0	1	0
8.5	0.5	1	0.5	0	0	0	1	0
8.5	1.5	1	0.5	0	0	0	1	0
8.5	8.5	1	0.5	0	0	0	1	0
8.5	9.5	1	0.5	0	0	0	1	0
8.5	10.5	1	0.5	0	0	0	1	0
8.5	14.5	1	0.5	0	0	0	1	0
8.5	15.5	1	0.5	0	0	0	1	0
8.5	16.5	1	0.5	0	0	0	1	0
8.5	17.5	1	0.5	0	0	0	1	0
8.5	18.5	1	0.5	0	0	0	1	0
8.5	19.5	1	0.5	0	0	0	1	0
8.5	20.5	1	0.5	0	0	0	1	0
8.5	21.5	1	0.5	0	0	0	1	0
8.5	22.5	1	0.5	0	0	0	1	0
8.5	23.5	1	0.5	0	0	0	1	0
8.5	24.5	1	0.5	0	0	0	1	0
8.5	25.5	1	0.5	0	0	0	1	0
8.5	26.5	1	0.5	0	0	0	1	0
8.5	33.5	1	0.5	0	0	0	1	0
8.5	34.5	1	0.5	0	0	0	1	0
9.5	0.5	1	0.5	0	0	0	1	0
9.5	1.5	1	0.5	0	0	0	1	0
9.5	2.5	1	0.5	0	0	0	1	0
9.5	3.5	1	0.5	0	0	0	1	0
9.5	4.5	1	0.5	0	0	0	1	0
9.5	8.5	1	0.5	0	0	0	1	0
9.5	9.5	1	0.5	0	0	0	1	0
9.5	10.5	1	0.5	0	0	0	1	0
9.5	11.5	1	0.5	0	0	0	1	0
9.5	12.5	1	0.5	0	0	0	1	0
9.5	13.5	1	0.5	0	0	0	1	0
9.5	14.5	1	0.5	0	0	0	1	0
9.5	15.5	1	0.5	0	0	0	1	0
9.5	16.5	1	0.5	0	0	0	1	0
9.5	17.5	1	0.5	0	0	0	1	0
9.5	18.5	1	0.5	0	0	0	1	0