[Format]      =  4.0
[Frequency]   =  0
[Precision]   =  1e-008
[MinAngle]    =  30
[DoSmartMesh] =  1
[Depth]       =  1
[LengthUnits] =  inches
[ProblemType] =  planar
[Coordinates] =  cartesian
[ACSolver]    =  0
[PrevType]    =  0
[PrevSoln]    =  ""
[Comment]     =  "Add comments here."
[PointProps]   = 0
[BdryProps]   = 1
  <BeginBdry>
    <BdryName> = "dirichlet"
    <BdryType> = 0
    <A_0> = 0
    <A_1> = 0
    <A_2> = 0
    <Phi> = 0
    <c0> = 0
    <c0i> = 0
    <c1> = 0
    <c1i> = 0
    <Mu_ssd> = 0
    <Sigma_ssd> = 0
    <innerangle> = 0
    <outerangle> = 0
  <EndBdry>
[BlockProps]  = 4
  <BeginBlock>
    <BlockName> = "Air"
    <Mu_x> = 1
    <Mu_y> = 1
    <H_c> = 0
    <H_cAngle> = 0
    <J_re> = 0
    <J_im> = 0
    <Sigma> = 0
    <d_lam> = 0
    <Phi_h> = 0
    <Phi_hx> = 0
    <Phi_hy> = 0
    <LamType> = 0
    <LamFill> = 1
    <NStrands> = 0
    <WireD> = 0
    <BHPoints> = 0
  <EndBlock>
  <BeginBlock>
    <BlockName> = "LinearIron"
    <Mu_x> = 2100
    <Mu_y> = 2100
    <H_c> = 0
    <H_cAngle> = 0
    <J_re> = 0
    <J_im> = 0
    <Sigma> = 0
    <d_lam> = 0
    <Phi_h> = 0
    <Phi_hx> = 0
    <Phi_hy> = 0
    <LamType> = 0
    <LamFill> = 1
    <NStrands> = 0
    <WireD> = 0
    <BHPoints> = 0
  <EndBlock>
  <BeginBlock>
    <BlockName> = "Cold rolled low carbon strip steel"
    <Mu_x> = 1
    <Mu_y> = 1
    <H_c> = 0
    <H_cAngle> = 0
    <J_re> = 0
    <J_im> = 0
    <Sigma> = 8.4100000000000001
    <d_lam> = 0
    <Phi_h> = 0
    <Phi_hx> = 0
    <Phi_hy> = 0
    <LamType> = 0
    <LamFill> = 1
    <NStrands> = 0
    <WireD> = 0
    <BHPoints> = 30
      0	0
      0.25879392381720928	164.92999999999998
      0.30180486493722419	173.63666666666668
      0.33666735915473539	180.92666666666665
      0.42495199342992973	200.53
      0.7473178074029625	287.38666666666666
      1.011384581253957	412.14333333333326
      1.201776747252508	591.58999999999992
      1.2680347934366085	690.83333333333326
      1.3825549144095455	972.10333333333324
      1.4844346021927772	1566.0333333333333
      1.5543215879553376	2298.3999999999996
      1.6275853376778917	3516.2666666666664
      1.7326643792703789	6284.8000000000002
      1.7421846824795273	6619.2666666666673
      1.774621610366959	7895.3666666666659
      1.7804018079804538	8144.8666666666659
      1.9084190129899348	16487.666666666664
      1.9600489652236601	21816.666666666664
      2.0671950574242537	42384.333333333328
      2.093638690713278	51093
      2.1195996276460018	61592.666666666664
      2.151693826634427	76601.666666666657
      2.1766199432507078	89514
      2.1913634881460617	97267.666666666657
      2.2061088381613558	106800
      2.2294237629023126	120976.66666666666
      2.24540169688657	131463.33333333331
      2.4243620951622349	269260
      2.4898323550981316	321280
  <EndBlock>
  <BeginBlock>
    <BlockName> = "Copper"
    <Mu_x> = 1
    <Mu_y> = 1
    <H_c> = 0
    <H_cAngle> = 0
    <J_re> = 0
    <J_im> = 0
    <Sigma> = 58
    <d_lam> = 0
    <Phi_h> = 0
    <Phi_hx> = 0
    <Phi_hy> = 0
    <LamType> = 0
    <LamFill> = 1
    <NStrands> = 0
    <WireD> = 0
    <BHPoints> = 0
  <EndBlock>
[CircuitProps]  = 1
  <BeginCircuit>
    <CircuitName> = "icoil"
    <TotalAmps_re> = 1
    <TotalAmps_im> = 0
    <CircuitType> = 1
  <EndCircuit>
[NumPoints] = 22
0	0	0	0
-18	0	0	0
-18	30	0	0
0	30	0	0
0	24	0	0
-12	24	0	0
-12	6	0	0
0	6	0	0
-9	6	0	0
-9	24	0	0
-21	6	0	0
-18	6	0	0
-18	24	0	0
-21	24	0	0
3	0	0	0
9	0	0	0
9	30	0	0
3	30	0	0
-100	100	0	0
100	100	0	0
100	-100	0	0
-100	-100	0	0
[NumSegments] = 24
0	1	-1	0	0	0
1	11	-1	0	0	0
2	3	-1	0	0	0
3	4	-1	0	0	0
4	9	-1	0	0	0
5	6	-1	0	0	0
6	8	-1	0	0	0
7	0	-1	0	0	0
8	7	-1	0	0	0
9	5	-1	0	0	0
8	9	-1	0	0	0
11	12	-1	0	0	0
10	11	-1	0	0	0
12	2	-1	0	0	0
12	13	-1	0	0	0
13	10	-1	0	0	0
14	15	-1	0	0	0
15	16	-1	0	0	0
16	17	-1	0	0	0
17	14	-1	0	0	0
18	19	-1	1	0	0
19	20	-1	1	0	0
20	21	-1	1	0	0
21	18	-1	1	0	0
[NumArcSegments] = 0
[NumHoles] = 0
[NumBlockLabels] = 5
-15	15	2	0.5	0	0	5	1	0
-10.5	15	4	-1	1	0	1	500	0
-19.5	15	4	-1	1	0	1	-500	0
6	15	3	0.5	0	0	5	1	0
-65	75	1	-1	0	0	0	1	0
